onBus118_DONALDS.m
function mpc = onBus118_DONALDS
%   Made by Tao Ding, Tsinghua University (Also a visiting scholar of The
%   University of Tennessee, Knoxville).

%   Thanks to the help of Linquan Bai and Xue Li, who are the Ph.D. student
%   of The University of Tennessee, Knoxville
%   2014/03/10

%% MATPOWER Case Format : Version 2
mpc.version = '2';

%%-----  Power Flow Data  -----%%
%% system MVA base
mpc.baseMVA = 100;

%% bus data
%	bus_i	type	Pd	Qd	Gs	Bs	area	Vm	Va	baseKV	zone	Vmax	Vmin
mpc.bus = [
1	3	0	0	0	0	1	1.05	0	10	1	1.1	0.9
2	1	0	0	0	0	1	1	0	10	1	1.1	0.9
3	1	0	0	0	0	1	1	0	10	1	1.1	0.9
4	1	0	0	0	0	1	1	0	10	1	1.1	0.9
5	1	0	0	0	0	1	1	0	10	1	1.1	0.9
6	1	0.078	0.066	0	0	1	1	0	10	1	1.1	0.9
7	1	1.212	0.9	0	0	1	1	0	10	1	1.1	0.9
8	1	2.25	1.62	0	0	1	1	0	10	1	1.1	0.9
9	1	0.9	0.66	0	0	1	1	0	10	1	1.1	0.9
10	1	0.84	0.27	0	0	1	1	0	10	1	1.1	0.9
11	1	4.35	3.12	0	0	1	1	0	10	1	1.1	0.9
12	1	4.35	3.12	0	0	1	1	0	10	1	1.1	0.9
13	1	0.24	0.165	0	0	1	1	0	10	1	1.1	0.9
14	1	0.24	0.165	0	0	1	1	0	10	1	1.1	0.9
15	1	1.8	0	0	0	1	1	0	10	1	1.1	0.9
16	1	1.8	0.9	0	0	1	1	0	10	1	1.1	0.9
17	1	2.7	1.05	0	0	1	1	0	10	1	1.1	0.9
18	1	2.7	1.05	0	0	1	1	0	10	1	1.1	0.9
19	1	2.7	0	0	0	1	1	0	10	1	1.1	0.9
20	1	2.7	0.018	0	0	1	1	0	10	1	1.1	0.9
21	1	2.7	2.43	0	0	1	1	0	10	1	1.1	0.9
22	1	2.7	0.105	0	0	1	1	0	10	1	1.1	0.9
23	1	12.6	0	0	0	1	1	0	10	1	1.1	0.9
24	1	12.6	0.6	0	0	1	1	0	10	1	1.1	0.9
25	1	1.8	0	0	0	1	1	0	10	1	1.1	0.9
26	1	0.42	0.3	0	0	1	1	0	10	1	1.1	0.9
27	1	0.42	0.3	0	0	1	1	0	10	1	1.1	0.9
28	1	0.78	0.558	0	0	1	1	0	10	1	1.1	0.9
29	1	0.78	0.558	0	0	1	1	0	10	1	1.1	0.9
30	1	0	0	0	0	1	1	0	10	1	1.1	0.9
31	1	0	0	0	0	1	1	0	10	1	1.1	0.9
32	1	0	0	0	0	1	1	0	10	1	1.1	0.9
33	1	0.42	0.3	0	0	1	1	0	10	1	1.1	0.9
34	1	0.585	0.42	0	0	1	1	0	10	1	1.1	0.9
35	1	0.18	0.12	0	0	1	1	0	10	1	1.1	0.9
36	1	0	0	0	0	1	1	0	10	1	1.1	0.9
37	1	2.37	1.692	0	0	1	1	0	10	1	1.1	0.9
38	1	11.541	8.235	0	0	1	1	0	10	1	1.1	0.9
39	1	11.541	8.235	0	0	1	1	0	10	1	1.1	0.9
40	1	1.215	0.849	0	0	1	1	0	10	1	1.1	0.9
41	1	0.108	0.081	0	0	1	1	0	10	1	1.1	0.9
42	1	0.132	0.105	0	0	1	1	0	10	1	1.1	0.9
43	1	0.792	0.57	0	0	1	1	0	10	1	1.1	0.9
44	1	0.72	0.426	0	0	1	1	0	10	1	1.1	0.9
45	1	0	0	0	0	1	1	0	10	1	1.1	0.9
46	1	0	0	0	0	1	1	0	10	1	1.1	0.9
47	1	0	0	0	0	1	1	0	10	1	1.1	0.9
48	1	3	2.16	0	0	1	1	0	10	1	1.1	0.9
49	1	0	0	0	0	1	1	0	10	1	1.1	0.9
50	1	37.32	26.64	0	0	1	1	0	10	1	1.1	0.9
51	1	0.96	0.69	0	0	1	1	0	10	1	1.1	0.9
52	1	0	0	0	0	1	1	0	10	1	1.1	0.9
53	1	6.81	4.86	0	0	1	1	0	10	1	1.1	0.9
54	1	1.77	1.26	0	0	1	1	0	10	1	1.1	0.9
55	1	0.54	0.39	0	0	1	1	0	10	1	1.1	0.9
56	1	0.54	0.39	0	0	1	1	0	10	1	1.1	0.9
57	1	0.84	0.6	0	0	1	1	0	10	1	1.1	0.9
58	1	0.84	0.6	0	0	1	1	0	10	1	1.1	0.9
59	1	0.78	0.558	0	0	1	1	0	10	1	1.1	0.9
60	1	0.78	0.558	0	0	1	1	0	10	1	1.1	0.9
61	1	0	0	0	0	1	1	0	10	1	1.1	0.9
62	1	0.72	0.51	0	0	1	1	0	10	1	1.1	0.9
63	1	0.72	0.51	0	0	1	1	0	10	1	1.1	0.9
64	1	0.036	0.03	0	0	1	1	0	10	1	1.1	0.9
65	1	0	0	0	0	1	1	0	10	1	1.1	0.9
66	1	0.18	0.129	0	0	1	1	0	10	1	1.1	0.9
67	1	0	0	0	0	1	1	0	10	1	1.1	0.9
68	1	1.176	0.789	0	0	1	1	0	10	1	1.1	0.9
69	1	1.176	0.789	0	0	1	1	0	10	1	1.1	0.9
];

%% generator data
%	bus	Pg	Qg	Qmax	Qmin	Vg	mBase	status	Pmax	Pmin	Pc1	Pc2	Qc1min	Qc1max	Qc2min	Qc2max	ramp_agc	ramp_10	ramp_30	ramp_q	apf
mpc.gen = [
	4	0	0	200	2.0	1	100	1	26	0	0	0	0	0	0	0	0	0	0	0	0;
    27	0	0	160	1.6	1	100	1	20	0	0	0	0	0	0	0	0	0	0	0	0;
];
mpc.gasgen = [
	9	0	0	0	0	1	100	1	20	0	0	0	0	0	0	0	0	0	0	0	0;
    69	0	0	0	0	1	100	1	16	0	0	0	0	0	0	0	0	0	0	0	0;  
];
%	bus	Emax	Emin	Qmax	Qmin	Vg	mBase	status	Pmax	Pmin	Pc1	Pc2	Qc1min	Qc1max	Qc2min	Qc2max	ramp_agc	ramp_10	ramp_30	ramp_q	apf
mpc.battery = [
    35	20	0	0	0	1	100	1	5	0	0	0	0	0	0	0	0	0	0	0	0;
];

%% branch data
%	fbus	tbus	r	x	b	rateA	rateB	rateC	ratio	angle	status	angmin	angmax
mpc.branch = [
1	2	5.00E-06	1.20E-05	0	250	250	250	0	0	1
2	3	5.00E-06	1.20E-05	0	250	250	250	0	0	1
3	4	1.50E-05	3.60E-05	0	250	250	250	0	0	1
4	5	0.000251	0.000294	0	250	250	250	0	0	1
5	6	0.00366	0.000864	0	250	250	250	0	0	1
6	7	0.003811	0.001941	0	250	250	250	0	0	1
7	8	0.000922	0.00047	0	250	250	250	0	0	1
8	9	0.000493	0.000251	0	250	250	250	0	0	1
9	10	0.00819	0.002707	0	250	250	250	0	0	1
10	11	0.001872	0.000619	0	250	250	250	0	0	1
11	12	0.007114	0.002351	0	250	250	250	0	0	1
12	13	0.0103	0.0034	0	250	250	250	0	0	1
13	14	0.01044	0.00345	0	250	250	250	0	0	1
14	15	0.007463	0.00545	0	250	250	250	0	0	1
15	16	0.001966	0.00065	0	250	250	250	0	0	1
16	17	0.003744	0.001238	0	250	250	250	0	0	1
17	18	4.70E-05	1.60E-05	0	250	250	250	0	0	1
18	19	0.003276	0.001083	0	250	250	250	0	0	1
19	20	0.002106	0.000696	0	250	250	250	0	0	1
20	21	0.003416	0.001129	0	250	250	250	0	0	1
21	22	0.00014	4.60E-05	0	250	250	250	0	0	1
22	23	0.001591	0.000526	0	250	250	250	0	0	1
23	24	0.003463	0.001129	0	250	250	250	0	0	1
24	25	0.007488	0.002475	0	250	250	250	0	0	1
25	26	0.003089	0.001021	0	250	250	250	0	0	1
26	27	0.001732	0.000572	0	250	250	250	0	0	1
3	28	4.40E-05	0.000108	0	250	250	250	0	0	1
28	29	0.00064	0.001565	0	250	250	250	0	0	1
29	30	0.003978	0.001315	0	250	250	250	0	0	1
30	31	0.000702	0.000232	0	250	250	250	0	0	1
31	32	0.00351	0.00116	0	250	250	250	0	0	1
32	33	0.00839	0.002816	0	250	250	250	0	0	1
33	34	0.01708	0.005645	0	250	250	250	0	0	1
34	35	0.01474	0.004873	0	250	250	250	0	0	1
3	59	4.40E-05	0.000108	0	250	250	250	0	0	1
59	60	0.00064	0.001565	0	250	250	250	0	0	1
60	61	0.001503	0.00123	0	250	250	250	0	0	1
61	62	0.000304	0.000355	0	250	250	250	0	0	1
62	63	1.80E-05	2.10E-05	0	250	250	250	0	0	1
63	64	0.007283	0.008509	0	250	250	250	0	0	1
64	65	0.0031	0.003623	0	250	250	250	0	0	1
65	66	0.00041	0.000478	0	250	250	250	0	0	1
66	67	9.20E-05	0.000116	0	250	250	250	0	0	1
67	68	0.001089	0.001373	0	250	250	250	0	0	1
68	69	9.00E-06	1.20E-05	0	250	250	250	0	0	1
4	36	3.40E-05	8.40E-05	0	250	250	250	0	0	1
36	37	0.000851	0.002083	0	250	250	250	0	0	1
37	38	0.002898	0.007091	0	250	250	250	0	0	1
38	39	0.000822	0.002011	0	250	250	250	0	0	1
8	40	0.000928	0.000473	0	250	250	250	0	0	1
40	41	0.003319	0.001114	0	250	250	250	0	0	1
9	42	0.00174	0.000886	0	250	250	250	0	0	1
42	43	0.00203	0.001034	0	250	250	250	0	0	1
43	44	0.002842	0.001447	0	250	250	250	0	0	1
44	45	0.002813	0.001443	0	250	250	250	0	0	1
45	46	0.0159	0.005337	0	250	250	250	0	0	1
46	47	0.007837	0.00263	0	250	250	250	0	0	1
47	48	0.003042	0.001006	0	250	250	250	0	0	1
48	49	0.003861	0.001172	0	250	250	250	0	0	1
49	50	0.005075	0.002585	0	250	250	250	0	0	1
50	51	0.000974	0.000496	0	250	250	250	0	0	1
51	52	0.00145	0.000738	0	250	250	250	0	0	1
52	53	0.007105	0.003619	0	250	250	250	0	0	1
53	54	0.01041	0.005302	0	250	250	250	0	0	1
11	55	0.002012	0.000611	0	250	250	250	0	0	1
55	56	4.70E-05	1.40E-05	0	250	250	250	0	0	1
12	57	0.007394	0.002444	0	250	250	250	0	0	1
57	58	4.70E-05	1.60E-05	0	250	250	250	0	0	1
%      11  66   0.5000   0.5000   0   250   250   250   0   0   0;
%      13  21   0.5000   0.5000   0   250   250   250   0   0   0;
%      15  69   1.0000   1.0000   0   250   250   250   0   0   0;
%      39  48   2.0000   2.0000   0   250   250   250   0   0   0;
%      27  54   1.0000   1.0000   0   250   250   250   0   0   0;
];%%-----  OPF Data  -----%%
%% generator cost data
%	1	startup	shutdown	n	x1	y1	...	xn	yn 
%	2	startup	shutdown	n	c(n-1)	...	c0 
mpc.gencost = [
	2	0	0	3	0.025	50	0;
	2	0	0	3	0.025	60	0;
    2	0	0	3	0.05	5	0;
];   
%% number
mpc.nBus = size(mpc.bus,1);
mpc.nBranch = size(mpc.branch,1);
mpc.nDgen = size(mpc.gen,1);
mpc.nGtur = size(mpc.gasgen,1);
mpc.nBatr = size(mpc.battery,1);
%% elec load curve
mpc.loadcurve = [266.32
254.85
262.35
269.96
271.48
257.48
248.28
247.74
255.38
251.25
255.58
248.71
262.94
265.88
263.49
258.23
256.32
251.39
254.78
263.88
258.65
246.51
243.44
249
];

mpc.loadcurve = mpc.loadcurve/(max(mpc.loadcurve));%Normalized to take the shape of its load curve

